
#######################################################################
#
#                 Cambridge Crystallographic Data Centre
#                                CCDC 
#
#######################################################################
#
# If this CIF has been generated from an entry in the Cambridge 
# Structural Database, then it will include bibliographic, chemical, 
# crystal, experimental, refinement or atomic coordinate data resulting 
# from the CCDC's data processing and validation procedures.
#
#######################################################################

data_AWAREV
_symmetry_cell_setting           rhombohedral
_symmetry_space_group_name_H-M   'R -3 c'
_symmetry_Int_Tables_number      167
_space_group_name_Hall           '-R 3 2"c'
loop_
_symmetry_equiv_pos_site_id
_symmetry_equiv_pos_as_xyz
1 x,y,z
2 -y,x-y,z
3 -x+y,-x,z
4 y,x,1/2-z
5 2/3+x,1/3+y,1/3+z
6 2/3-y,1/3+x-y,1/3+z
7 2/3-x+y,1/3-x,1/3+z
8 2/3+y,1/3+x,5/6-z
9 1/3+x,2/3+y,2/3+z
10 1/3+y,2/3+x,1/6-z
11 -x+y,y,1/2+z
12 x,x-y,1/2+z
13 2/3+y,1/3-x+y,1/3-z
14 2/3+x-y,1/3+x,1/3-z
15 2/3-x+y,1/3+y,5/6+z
16 2/3+x,1/3+x-y,5/6+z
17 1/3-x+y,2/3+y,1/6+z
18 1/3+x,2/3+x-y,1/6+z
19 -x,-y,-z
20 y,-x+y,-z
21 x-y,x,-z
22 -y,-x,1/2+z
23 1/3-x,2/3-y,2/3-z
24 1/3+y,2/3-x+y,2/3-z
25 1/3+x-y,2/3+x,2/3-z
26 1/3-y,2/3-x,1/6+z
27 2/3-x,1/3-y,1/3-z
28 2/3-y,1/3-x,5/6+z
29 x-y,-y,1/2-z
30 -x,-x+y,1/2-z
31 1/3-y,2/3+x-y,2/3+z
32 1/3-x+y,2/3-x,2/3+z
33 1/3+x-y,2/3-y,1/6-z
34 1/3-x,2/3-x+y,1/6-z
35 2/3+x-y,1/3-y,5/6-z
36 2/3-x,1/3-x+y,5/6-z
_cell_length_a                   18.5059(7)
_cell_length_b                   18.5059(7)
_cell_length_c                   9.9168(7)
_cell_angle_alpha                90
_cell_angle_beta                 90
_cell_angle_gamma                120.00
_cell_volume                     2941.19
loop_
_atom_site_label
_atom_site_type_symbol
_atom_site_fract_x
_atom_site_fract_y
_atom_site_fract_z
_atom_site_U_iso_or_equiv
_atom_site_thermal_displace_type
Zn1 Zn 0.375537(14) 0.375537(14) 0.2500 0.0200 Uani
F1 F 0.41221(8) 0.3333 0.0833 0.0255 Uani
C1 C 0.37251(13) 0.21493(12) 0.33085(17) 0.0245 Uani
N1 N 0.4297(2) 0.2187(2) 0.2348(3) 0.0279 Uani
H2 H 0.4593 0.2639 0.1898 0.0330 Uiso
H3 H 0.4352 0.1758 0.2206 0.0330 Uiso
N2 N 0.35905(9) 0.27668(9) 0.35996(14) 0.0208 Uani
N3 N 0.3333 0.15018(11) 0.4167 0.0264 Uani
H1? H 0.4050 0.2157 0.2587 0.0290 Uiso
loop_
_atom_site_aniso_label
_atom_site_aniso_U_11
_atom_site_aniso_U_22
_atom_site_aniso_U_33
_atom_site_aniso_U_23
_atom_site_aniso_U_13
_atom_site_aniso_U_12
Zn1 0.01774(16) 0.01774(16) 0.02172(19) 0.00348(5) -0.00348(5) 0.00668(12)
F1 0.0236(5) 0.0323(8) 0.0234(8) 0.0061(6) 0.0031(3) 0.0161(4)
C1 0.0345(9) 0.0235(8) 0.0175(8) 0.0029(7) 0.0072(7) 0.0161(7)
N1 0.0359(16) 0.0313(17) 0.0243(15) 0.0097(13) 0.0131(13) 0.0227(15)
N2 0.0277(8) 0.0218(7) 0.0142(7) 0.0014(5) 0.0008(6) 0.0133(6)
N3 0.0404(13) 0.0231(7) 0.0215(10) 0.0067(5) 0.0135(9) 0.0202(6)

#END
