
#######################################################################
#
#                 Cambridge Crystallographic Data Centre
#                                CCDC 
#
#######################################################################
#
# If this CIF has been generated from an entry in the Cambridge 
# Structural Database, then it will include bibliographic, chemical, 
# crystal, experimental, refinement or atomic coordinate data resulting 
# from the CCDC's data processing and validation procedures.
#
#######################################################################

data_MOF-303
_symmetry_cell_setting           monoclinic
_symmetry_space_group_name_H-M   'P 21'
_symmetry_Int_Tables_number      4
_space_group_name_Hall           'P 2yb'
loop_
_symmetry_equiv_pos_site_id
_symmetry_equiv_pos_as_xyz
1 x,y,z
2 -x,1/2+y,-z
_cell_length_a                   12.2943
_cell_length_b                   14.9784
_cell_length_c                   14.6004
_cell_angle_alpha                90
_cell_angle_beta                 104.8238
_cell_angle_gamma                90
_cell_volume                     2599.16
loop_
_atom_site_label
_atom_site_type_symbol
_atom_site_fract_x
_atom_site_fract_y
_atom_site_fract_z
All Al 0.00025 0.41685 0.73197
Al2 Al 0.5052 0.41616 0.7551
Al3 Al 0.26447 0.46312 0.79057
O04 O 0.14515 0.39394 0.75591
Al5 Al 0.74609 0.36962 0.71973
O06 O 0.65215 0.40091 0.78631
N7 N 0.65911 0.58781 0.4947
C8 C 0.0777 0.72771 0.46665
O9 O 0.02071 0.48883 0.83088
010 O 0.35992 0.54594 0.8577
Oll O 0.51428 0.48687 0.65752
O12 O 0.34887 0.78639 0.34696
O13 O 0.20455 0.79397 0.38367
O14 O 0.00579 0.82564 1.14862
O15 O 0.52653 0.5122 0.82915
O16 O 0.68747 0.86186 1.12576
O17 O 0.19263 0.79639 1.1823
O18 O 0.20357 0.53672 0.69279
O19 O 0.20467 0.52545 0.87179
020 O 0.68679 0.45674 0.63717
C21 C 0.58013 0.74842 1.02908
O22 O 0.51482 0.8318 1.14595
023 O 0.35832 0.4318 0.72388
C24 C 0.48855 0.62779 0.50452
C25 C 0.10427 0.7884 0.39472
026 O 0.01647 0.50848 0.65931
C27 C 0.14816 0.67003 0.53056
C28 C 0.52411 0.63714 0.92751
C29 C 0.07584 0.62466 0.57419
C30 C 0.59392 0.81827 1.10442
N31 N 0.62682 0.65447 0.43447
N32 N 0.62957 0.66206 0.92768
N33 N -0.02885 0.71705 0.47343
O34 O 0.02097 0.8318 0.34361
C35 C 0.52304 0.68081 0.43799
C36 C 0.46556 0.56083 0.86836
C37 C 0.10124 0.55222 0.6462
C38 C 0.59316 0.50019 0.61568
O39 O -0.14575 0.43922 0.70804
N40 N -0.02924 0.65543 0.538
C41 C 0.10416 0.53187 0.8822
C42 C 0.09029 0.78167 1.13531
C43 C 0.1374 0.66279 1.02072
O44 O 0.51576 0.81984 0.31867
C45 C 0.06459 0.71017 1.06223
N46 N 0.66352 0.72837 0.98804
C47 C 0.4886 0.69163 0.99217
C48 C 0.57862 0.5694 0.53944
C49 C 0.45441 0.7441 0.35756
H50 H 0.68419 0.41194 0.84501
H51 H 0.32626 0.42087 0.66517
H52 H 0.16077 0.3388 0.74793
H53 H 0.73686 0.55587 0.50546
H54 H 0.41136 0.63246 0.52626
H55 H 0.23757 0.66099 0.54205
H56 H 0.67951 0.63378 0.88722
H57 H -0.10175 0.63464 0.55666
H58 H 0.40953 0.6893 1.01121
C59 C 0.07726 0.59351 0.9532
N60 N -0.02996 0.60721 0.95675
N61 N -0.03044 0.66888 1.02125
H62 H -0.15095 0.49433 0.76191
H63 H 0.22756 0.66904 1.03517
H64 H -0.10353 0.69193 1.0374

#END
